/*--------------------------------*- C++ -*----------------------------------*\
| =========                 |                                                 |
| \\      /  F ield         | OpenFOAM: The Open Source CFD Toolbox           |
|  \\    /   O peration     | Version:                                        |
|   \\  /    A nd           | Web:      www.OpenFOAM.org                      |
|    \\/     M anipulation  |                                                 |
\*---------------------------------------------------------------------------*/
FoamFile
{
    version     2.0;
    format      ascii;
    class       dictionary;
    object      blockMeshDict;
}
// * * * * * * * * * * * * * * * * * * * * * * * * * * * * * * * * * * * * * //

convertToMeters 1;

dx              10;
dy              1;
dz              0.1;

ox              0;
oy              0;
oz              0;

nz              1;
nx              500;
ny              #calc "int($nx * $dy / $dx)";

box0nx      $nx;
box0ny      $ny;
box0nz      $nz;

//box0
box0x0      #calc "- 0.5 * $dx + $ox";
box0y0      #calc "- 0.5 * $dy + $oy";
box0z0      #calc "- 0.5 * $dz + $oz";

box0x1      #calc "0.5 * $dx + $ox";
box0y1      #calc "- 0.5 * $dy + $oy";
box0z1      #calc "- 0.5 * $dz + $oz";

box0x2      #calc "0.5 * $dx + $ox";
box0y2      #calc "0.5 * $dy + $oy";
box0z2      #calc "- 0.5 * $dz + $oz";

box0x3      #calc "- 0.5 * $dx + $ox";
box0y3      #calc "0.5 * $dy + $oy";
box0z3      #calc "- 0.5 * $dz + $oz";

box0x4      #calc "- 0.5 * $dx + $ox";
box0y4      #calc "- 0.5 * $dy + $oy";
box0z4      #calc "0.5 * $dz + $oz";

box0x5      #calc "0.5 * $dx + $ox";
box0y5      #calc "- 0.5 * $dy + $oy";
box0z5      #calc "0.5 * $dz + $oz";

box0x6      #calc "0.5 * $dx + $ox";
box0y6      #calc "0.5 * $dy + $oy";
box0z6      #calc "0.5 * $dz + $oz";

box0x7      #calc "- 0.5 * $dx + $ox";
box0y7      #calc "0.5 * $dy + $oy";
box0z7      #calc "0.5 * $dz + $oz";

vertices
(
    //box0
    ($box0x0 $box0y0 $box0z0)
    ($box0x1 $box0y1 $box0z1)
    ($box0x2 $box0y2 $box0z2)
    ($box0x3 $box0y3 $box0z3)
    ($box0x4 $box0y4 $box0z4)
    ($box0x5 $box0y5 $box0z5)
    ($box0x6 $box0y6 $box0z6)
    ($box0x7 $box0y7 $box0z7)
);

blocks
(
    hex (0 1 2 3 4 5 6 7) ($box0nx $box0ny $box0nz) simpleGrading (1 1 1)
);

edges
(
    polyLine 0 1
    (
        (-5.0 -0.5 -0.05)
        (-4.795918367346939 -0.4872122838315494 -0.05)
        (-4.591836734693878 -0.4746345416090493 -0.05)
        (-4.387755102040816 -0.4624732995120626 -0.05)
        (-4.183673469387755 -0.4509282447996062 -0.05)
        (-3.979591836734694 -0.4401889469508784 -0.05)
        (-3.7755102040816326 -0.43043174493965136 -0.05)
        (-3.5714285714285716 -0.421816851753197 -0.05)
        (-3.36734693877551 -0.4144857236994654 -0.05)
        (-3.163265306122449 -0.4085587376984188 -0.05)
        (-2.9591836734693877 -0.40413321469633395 -0.05)
        (-2.7551020408163267 -0.40128182165855497 -0.05)
        (-2.5510204081632653 -0.4000513783799312 -0.05)
        (-2.346938775510204 -0.40046208870508015 -0.05)
        (-2.1428571428571432 -0.4025072087818176 -0.05)
        (-1.9387755102040813 -0.4061531577950239 -0.05)
        (-1.7346938775510208 -0.41134006936269996 -0.05)
        (-1.5306122448979593 -0.4179827745403044 -0.05)
        (-1.3265306122448979 -0.42597220029246846 -0.05)
        (-1.1224489795918369 -0.43517716046922117 -0.05)
        (-0.9183673469387754 -0.44544650987894513 -0.05)
        (-0.7142857142857144 -0.4566116260882442 -0.05)
        (-0.5102040816326534 -0.4684891781976379 -0.05)
        (-0.3061224489795915 -0.4808841371298628 -0.05)
        (-0.1020408163265305 -0.4935929780019287 -0.05)
        (0.1020408163265305 -0.5064070219980713 -0.05)
        (0.3061224489795924 -0.5191158628701372 -0.05)
        (0.5102040816326525 -0.531510821802362 -0.05)
        (0.7142857142857135 -0.5433883739117558 -0.05)
        (0.9183673469387754 -0.5545534901210548 -0.05)
        (1.1224489795918373 -0.5648228395307788 -0.05)
        (1.3265306122448983 -0.5740277997075316 -0.05)
        (1.5306122448979584 -0.5820172254596956 -0.05)
        (1.7346938775510203 -0.5886599306373 -0.05)
        (1.9387755102040813 -0.5938468422049761 -0.05)
        (2.1428571428571432 -0.5974927912181823 -0.05)
        (2.3469387755102042 -0.5995379112949198 -0.05)
        (2.5510204081632644 -0.5999486216200688 -0.05)
        (2.7551020408163263 -0.598718178341445 -0.05)
        (2.959183673469388 -0.5958667853036661 -0.05)
        (3.163265306122449 -0.5914412623015812 -0.05)
        (3.36734693877551 -0.5855142763005345 -0.05)
        (3.571428571428571 -0.578183148246803 -0.05)
        (3.775510204081632 -0.5695682550603487 -0.05)
        (3.979591836734693 -0.5598110530491216 -0.05)
        (4.183673469387756 -0.5490717552003938 -0.05)
        (4.387755102040817 -0.5375267004879374 -0.05)
        (4.591836734693878 -0.5253654583909507 -0.05)
        (4.795918367346939 -0.5127877161684506 -0.05)
        (5.0 -0.5 -0.05)
    )

    polyLine 4 5
    (
        (-5.0 -0.5 0.05)
        (-4.795918367346939 -0.4872122838315494 0.05)
        (-4.591836734693878 -0.4746345416090493 0.05)
        (-4.387755102040816 -0.4624732995120626 0.05)
        (-4.183673469387755 -0.4509282447996062 0.05)
        (-3.979591836734694 -0.4401889469508784 0.05)
        (-3.7755102040816326 -0.43043174493965136 0.05)
        (-3.5714285714285716 -0.421816851753197 0.05)
        (-3.36734693877551 -0.4144857236994654 0.05)
        (-3.163265306122449 -0.4085587376984188 0.05)
        (-2.9591836734693877 -0.40413321469633395 0.05)
        (-2.7551020408163267 -0.40128182165855497 0.05)
        (-2.5510204081632653 -0.4000513783799312 0.05)
        (-2.346938775510204 -0.40046208870508015 0.05)
        (-2.1428571428571432 -0.4025072087818176 0.05)
        (-1.9387755102040813 -0.4061531577950239 0.05)
        (-1.7346938775510208 -0.41134006936269996 0.05)
        (-1.5306122448979593 -0.4179827745403044 0.05)
        (-1.3265306122448979 -0.42597220029246846 0.05)
        (-1.1224489795918369 -0.43517716046922117 0.05)
        (-0.9183673469387754 -0.44544650987894513 0.05)
        (-0.7142857142857144 -0.4566116260882442 0.05)
        (-0.5102040816326534 -0.4684891781976379 0.05)
        (-0.3061224489795915 -0.4808841371298628 0.05)
        (-0.1020408163265305 -0.4935929780019287 0.05)
        (0.1020408163265305 -0.5064070219980713 0.05)
        (0.3061224489795924 -0.5191158628701372 0.05)
        (0.5102040816326525 -0.531510821802362 0.05)
        (0.7142857142857135 -0.5433883739117558 0.05)
        (0.9183673469387754 -0.5545534901210548 0.05)
        (1.1224489795918373 -0.5648228395307788 0.05)
        (1.3265306122448983 -0.5740277997075316 0.05)
        (1.5306122448979584 -0.5820172254596956 0.05)
        (1.7346938775510203 -0.5886599306373 0.05)
        (1.9387755102040813 -0.5938468422049761 0.05)
        (2.1428571428571432 -0.5974927912181823 0.05)
        (2.3469387755102042 -0.5995379112949198 0.05)
        (2.5510204081632644 -0.5999486216200688 0.05)
        (2.7551020408163263 -0.598718178341445 0.05)
        (2.959183673469388 -0.5958667853036661 0.05)
        (3.163265306122449 -0.5914412623015812 0.05)
        (3.36734693877551 -0.5855142763005345 0.05)
        (3.571428571428571 -0.578183148246803 0.05)
        (3.775510204081632 -0.5695682550603487 0.05)
        (3.979591836734693 -0.5598110530491216 0.05)
        (4.183673469387756 -0.5490717552003938 0.05)
        (4.387755102040817 -0.5375267004879374 0.05)
        (4.591836734693878 -0.5253654583909507 0.05)
        (4.795918367346939 -0.5127877161684506 0.05)
        (5.0 -0.5 0.05)
    )

    polyLine 3 2
    (
        (-5.0 0.5 -0.05)
        (-4.795918367346939 0.4872122838315494 -0.05)
        (-4.591836734693878 0.4746345416090493 -0.05)
        (-4.387755102040816 0.4624732995120626 -0.05)
        (-4.183673469387755 0.4509282447996062 -0.05)
        (-3.979591836734694 0.4401889469508784 -0.05)
        (-3.7755102040816326 0.43043174493965136 -0.05)
        (-3.5714285714285716 0.421816851753197 -0.05)
        (-3.36734693877551 0.4144857236994654 -0.05)
        (-3.163265306122449 0.4085587376984188 -0.05)
        (-2.9591836734693877 0.40413321469633395 -0.05)
        (-2.7551020408163267 0.40128182165855497 -0.05)
        (-2.5510204081632653 0.4000513783799312 -0.05)
        (-2.346938775510204 0.40046208870508015 -0.05)
        (-2.1428571428571432 0.4025072087818176 -0.05)
        (-1.9387755102040813 0.4061531577950239 -0.05)
        (-1.7346938775510208 0.41134006936269996 -0.05)
        (-1.5306122448979593 0.4179827745403044 -0.05)
        (-1.3265306122448979 0.42597220029246846 -0.05)
        (-1.1224489795918369 0.43517716046922117 -0.05)
        (-0.9183673469387754 0.44544650987894513 -0.05)
        (-0.7142857142857144 0.4566116260882442 -0.05)
        (-0.5102040816326534 0.4684891781976379 -0.05)
        (-0.3061224489795915 0.4808841371298628 -0.05)
        (-0.1020408163265305 0.4935929780019287 -0.05)
        (0.1020408163265305 0.5064070219980713 -0.05)
        (0.3061224489795924 0.5191158628701372 -0.05)
        (0.5102040816326525 0.531510821802362 -0.05)
        (0.7142857142857135 0.5433883739117558 -0.05)
        (0.9183673469387754 0.5545534901210548 -0.05)
        (1.1224489795918373 0.5648228395307788 -0.05)
        (1.3265306122448983 0.5740277997075316 -0.05)
        (1.5306122448979584 0.5820172254596956 -0.05)
        (1.7346938775510203 0.5886599306373 -0.05)
        (1.9387755102040813 0.5938468422049761 -0.05)
        (2.1428571428571432 0.5974927912181823 -0.05)
        (2.3469387755102042 0.5995379112949198 -0.05)
        (2.5510204081632644 0.5999486216200688 -0.05)
        (2.7551020408163263 0.598718178341445 -0.05)
        (2.959183673469388 0.5958667853036661 -0.05)
        (3.163265306122449 0.5914412623015812 -0.05)
        (3.36734693877551 0.5855142763005345 -0.05)
        (3.571428571428571 0.578183148246803 -0.05)
        (3.775510204081632 0.5695682550603487 -0.05)
        (3.979591836734693 0.5598110530491216 -0.05)
        (4.183673469387756 0.5490717552003938 -0.05)
        (4.387755102040817 0.5375267004879374 -0.05)
        (4.591836734693878 0.5253654583909507 -0.05)
        (4.795918367346939 0.5127877161684506 -0.05)
        (5.0 0.5 -0.05)
    )

    polyLine 7 6
    (
        (-5.0 0.5 0.05)
        (-4.795918367346939 0.4872122838315494 0.05)
        (-4.591836734693878 0.4746345416090493 0.05)
        (-4.387755102040816 0.4624732995120626 0.05)
        (-4.183673469387755 0.4509282447996062 0.05)
        (-3.979591836734694 0.4401889469508784 0.05)
        (-3.7755102040816326 0.43043174493965136 0.05)
        (-3.5714285714285716 0.421816851753197 0.05)
        (-3.36734693877551 0.4144857236994654 0.05)
        (-3.163265306122449 0.4085587376984188 0.05)
        (-2.9591836734693877 0.40413321469633395 0.05)
        (-2.7551020408163267 0.40128182165855497 0.05)
        (-2.5510204081632653 0.4000513783799312 0.05)
        (-2.346938775510204 0.40046208870508015 0.05)
        (-2.1428571428571432 0.4025072087818176 0.05)
        (-1.9387755102040813 0.4061531577950239 0.05)
        (-1.7346938775510208 0.41134006936269996 0.05)
        (-1.5306122448979593 0.4179827745403044 0.05)
        (-1.3265306122448979 0.42597220029246846 0.05)
        (-1.1224489795918369 0.43517716046922117 0.05)
        (-0.9183673469387754 0.44544650987894513 0.05)
        (-0.7142857142857144 0.4566116260882442 0.05)
        (-0.5102040816326534 0.4684891781976379 0.05)
        (-0.3061224489795915 0.4808841371298628 0.05)
        (-0.1020408163265305 0.4935929780019287 0.05)
        (0.1020408163265305 0.5064070219980713 0.05)
        (0.3061224489795924 0.5191158628701372 0.05)
        (0.5102040816326525 0.531510821802362 0.05)
        (0.7142857142857135 0.5433883739117558 0.05)
        (0.9183673469387754 0.5545534901210548 0.05)
        (1.1224489795918373 0.5648228395307788 0.05)
        (1.3265306122448983 0.5740277997075316 0.05)
        (1.5306122448979584 0.5820172254596956 0.05)
        (1.7346938775510203 0.5886599306373 0.05)
        (1.9387755102040813 0.5938468422049761 0.05)
        (2.1428571428571432 0.5974927912181823 0.05)
        (2.3469387755102042 0.5995379112949198 0.05)
        (2.5510204081632644 0.5999486216200688 0.05)
        (2.7551020408163263 0.598718178341445 0.05)
        (2.959183673469388 0.5958667853036661 0.05)
        (3.163265306122449 0.5914412623015812 0.05)
        (3.36734693877551 0.5855142763005345 0.05)
        (3.571428571428571 0.578183148246803 0.05)
        (3.775510204081632 0.5695682550603487 0.05)
        (3.979591836734693 0.5598110530491216 0.05)
        (4.183673469387756 0.5490717552003938 0.05)
        (4.387755102040817 0.5375267004879374 0.05)
        (4.591836734693878 0.5253654583909507 0.05)
        (4.795918367346939 0.5127877161684506 0.05)
        (5.0 0.5 0.05)
    )
);

boundary
(
    back
    {
        type empty;
        faces
        (
            (0 1 2 3)
        );
    }
    front
    {
        type empty;
        faces
        (
            (4 7 6 5)
        );
    }
    left
    {
        type patch;
        faces
        (
            (0 3 7 4)
        );
    }
    bottom
    {
        type wall;
        faces
        (
            (0 4 5 1)
        );
    }
    right
    {
        type patch;
        faces
        (
            (1 5 6 2)
        );
    }
    top
    {
        type wall;
        faces
        (
            (3 2 6 7)
        );
    }
);

mergePatchPairs
(
);

// ************************************************************************* //
