/*--------------------------------*- C++ -*----------------------------------*\
  =========                 |
  \\      /  F ield         | OpenFOAM: The Open Source CFD Toolbox
   \\    /   O peration     | Website:  https://openfoam.org
    \\  /    A nd           | Version:  9
     \\/     M anipulation  |
\*---------------------------------------------------------------------------*/
FoamFile
{
    format      ascii;
    class       dictionary;
    location    "constant";
    object      dynamicMeshDict;
}
// * * * * * * * * * * * * * * * * * * * * * * * * * * * * * * * * * * * * * //

dynamicFvMesh   dynamicRefineFvMesh;

// How often to refine
refineInterval  1;

// Field to be refinement on
field           alpha.liquid;

// Refine field in between lower..upper
lowerRefineLevel 0.001;
upperRefineLevel 0.999;

// If value < unrefineLevel unrefine
unrefineLevel   10;

// Have slower than 2:1 refinement
nBufferLayers   4;

// Refine cells only up to maxRefinement levels
maxRefinement   1;

// Stop refinement if maxCells reached
maxCells        500000;

// Flux field and corresponding velocity field. Fluxes on changed
// faces get recalculated by interpolating the velocity. Use 'none'
// on surfaceScalarFields that do not need to be reinterpolated.
correctFluxes
(
    (phi U)
    (nHatf none)
    (rhoPhi none)
    (alphaPhi0.liquid none)
    (ghf none)
);

// Write the refinement level as a volScalarField
dumpLevel       true;


// ************************************************************************* //
