/*--------------------------------*- C++ -*----------------------------------*\
| =========                 |                                                 |
| \\      /  F ield         | OpenFOAM: The Open Source CFD Toolbox           |
|  \\    /   O peration     | Version:  2.2.2                                 |
|   \\  /    A nd           | Web:      www.OpenFOAM.org                      |
|    \\/     M anipulation  |                                                 |
\*---------------------------------------------------------------------------*/
FoamFile
{
    version     2.0;
    format      ascii;
    class       dictionary;
    location    "system";
    object      decomposeParDict;
}
// * * * * * * * * * * * * * * * * * * * * * * * * * * * * * * * * * * * * * //

numberOfSubdomains 6;

// method          simple;

decomposer      simple;
distributor     zoltan;
// distributor     zoltan;
libs            ("libzoltanDecomp.so");

// constraints
// {
//     // Decompose cells such that all cell originating from single cell
//     // end up on same processor
//     refinement
//     {
//         type    refinementHistory;
//         enabled true;
//     }
// }

simpleCoeffs
{
    n               ( 3 2 1 );
    delta           0.001;
}

hierarchicalCoeffs
{
    n               ( 2 2 1 );
    delta           0.001;
    order           xyz;
}

zoltanCoeffs
{
    lb_method       hypergraph;
    lb_approach     partition;
}

manualCoeffs
{
    dataFile        "";
}

scotchCoeffs
{
    processorWeights ( );
}

distributed     no;

roots           ( );


// ************************************************************************* //
